Version 4
SHEET 1 1124 680
WIRE 656 144 656 96
WIRE 912 144 656 144
WIRE 992 144 912 144
WIRE -48 176 -160 176
WIRE 64 176 16 176
WIRE 112 176 64 176
WIRE 592 192 560 192
WIRE 224 224 176 224
WIRE 272 224 224 224
WIRE 560 224 560 192
WIRE 560 224 432 224
WIRE 176 240 176 224
WIRE 656 352 656 240
WIRE 752 352 656 352
FLAG -160 256 0
FLAG 656 432 0
FLAG -368 -96 0
FLAG -144 -96 0
FLAG -144 -176 vd
FLAG 656 16 vd
FLAG -160 96 vd
FLAG -640 -96 0
FLAG -368 -176 carr
FLAG -640 -176 mod
FLAG -912 -96 0
FLAG -912 -176 rx
FLAG 64 112 mid
FLAG 176 320 0
FLAG 176 128 vd
FLAG 432 304 0
FLAG 432 144 vd
FLAG 912 144 mid
FLAG 224 288 0
FLAG 752 416 0
FLAG 560 128 rx
SYMBOL npn 592 144 R0
SYMATTR InstName Q1
SYMATTR Value 2N3904
SYMBOL res -176 80 R0
SYMATTR InstName R1
SYMATTR Value 20k
SYMBOL res -176 160 R0
SYMATTR InstName R2
SYMATTR Value 10k
SYMBOL res 640 0 R0
SYMATTR InstName R4
SYMATTR Value 5k6
SYMBOL voltage -144 -192 R0
WINDOW 123 0 0 Left 0
WINDOW 39 0 0 Left 0
SYMATTR InstName V1
SYMATTR Value 5
SYMBOL voltage -368 -192 R0
WINDOW 123 0 0 Left 0
WINDOW 39 0 0 Left 0
SYMATTR InstName V2
SYMATTR Value SINE(0 0.01 40k)
SYMBOL cap 48 112 R0
SYMATTR InstName C1
SYMATTR Value 1µ
SYMBOL voltage -640 -192 R0
WINDOW 123 0 0 Left 0
WINDOW 39 0 0 Left 0
SYMATTR InstName V3
SYMATTR Value SINE(0 1 1k)
SYMBOL bv -912 -192 R0
SYMATTR InstName B1
SYMATTR Value V=V(carr)*V(mod)
SYMBOL npn 112 128 R0
SYMATTR InstName Q2
SYMATTR Value 2N5089
SYMBOL res 160 224 R0
SYMATTR InstName R5
SYMATTR Value 2k2
SYMBOL res 416 128 R0
SYMATTR InstName R6
SYMATTR Value 60k
SYMBOL res 416 208 R0
SYMATTR InstName R7
SYMATTR Value 33k
SYMBOL cap 544 128 R0
SYMATTR InstName C4
SYMATTR Value 100n
SYMBOL res 640 336 R0
SYMATTR InstName R3
SYMATTR Value 2k2
SYMBOL cap 736 352 R0
SYMATTR InstName C2
SYMATTR Value 10µ
SYMBOL diode -48 192 R270
WINDOW 0 32 32 VTop 2
WINDOW 3 0 32 VBottom 2
SYMATTR InstName D2
SYMATTR Value 1N4148
SYMBOL cap 208 224 R0
SYMATTR InstName C5
SYMATTR Value 100n
TEXT -400 328 Left 2 !.tran 2m
